Circuit: * C:\Users\dal56\Documents\Oresat\oresat-proto-card\I2C-protection-sims\I2Cprotection.asc

Limiting rise time of source v3 to 5e-007
Limiting fall time of source v3 to 5e-007
WARNING: Node U1:N005 is floating.

Direct Newton iteration failed to find .op point.  (Use ".option noopiter" to skip.)
Starting Gmin stepping
Gmin = 10
Gmin = 1.07374
Gmin = 0.115292
Gmin = 0.0123794
Gmin = 0.00132923
Gmin = 0.000142725
Gmin = 1.5325e-005
Gmin = 1.6455e-006
Gmin = 1.76685e-007
Gmin = 1.89714e-008
Gmin = 2.03704e-009
Gmin = 2.18725e-010
Gmin = 2.34854e-011
Gmin = 2.52173e-012
Gmin = 2.70769e-013
Gmin = 0
Gmin stepping succeeded in finding the operating point.


Date: Fri Sep 27 17:10:55 2019
Total elapsed time: 0.189 seconds.

tnom = 27
temp = 27
method = modified trap
totiter = 9279
traniter = 8827
tranpoints = 3513
accept = 2914
rejected = 599
matrix size = 17
fillins = 3
solver = Normal
Matrix Compiler1: 882 bytes object code size  0.3/0.2/[0.1]
Matrix Compiler2: 1.44 KB object code size  0.3/0.3/[0.3]

