Circuit: * C:\Users\dal56\Documents\Oresat\oresat-proto-card\I2C-protection-sims\I2Cprotection.asc

Limiting rise time of source v3 to 5e-007
Limiting fall time of source v3 to 5e-007
WARNING: Node U1:N005 is floating.

Direct Newton iteration failed to find .op point.  (Use ".option noopiter" to skip.)
Starting Gmin stepping
Gmin = 10
Gmin = 1.07374
Gmin = 0.115292
Gmin = 0.0123794
Gmin = 0.00132923
Gmin = 0.000142725
Gmin = 1.5325e-005
Gmin = 1.6455e-006
Gmin = 1.76685e-007
Gmin = 1.89714e-008
vernier = 0.5
vernier = 0.25
vernier = 0.125
vernier = 0.0625
Gmin = 1.42645e-008
vernier = 0.0833333
vernier = 0.111111
vernier = 0.0555555
Gmin = 1.20752e-008
vernier = 0.0277778
Gmin = 1.11917e-008
vernier = 0.037037
vernier = 0.0493827
Gmin = 1.00824e-008
vernier = 0.0658435
vernier = 0.0877914
Gmin = 8.54091e-009
vernier = 0.117055
Gmin = 6.58611e-009
vernier = 0.156073
vernier = 0.208098
Gmin = 4.27353e-009
vernier = 0.277464
vernier = 0.369952
Gmin = 2.16343e-009
vernier = 0.493269
Gmin = 7.55897e-010
vernier = 0.657691
vernier = 0.876922
Gmin = 1.37232e-010
vernier = 1
Gmin = 1.54883e-011
Gmin = 1.66304e-012
Gmin = 1.78568e-013
Gmin = 0
Gmin stepping succeeded in finding the operating point.


Date: Tue Oct 22 13:25:18 2019
Total elapsed time: 0.351 seconds.

tnom = 27
temp = 27
method = modified trap
totiter = 10197
traniter = 8746
tranpoints = 3546
accept = 2936
rejected = 610
matrix size = 18
fillins = 8
solver = Normal
Matrix Compiler1: 1.02 KB object code size  0.3/0.2/[0.1]
Matrix Compiler2: 1.67 KB object code size  0.2/0.4/[0.2]

